* NGSPICE file created from alu.ext - technology: sky130A

* Black-box entry subcircuit for sky130_fd_sc_hd__tapvpwrvgnd_1 abstract view
.subckt sky130_fd_sc_hd__tapvpwrvgnd_1 VGND VPWR
.ends

* Black-box entry subcircuit for sky130_fd_sc_hd__a221oi_1 abstract view
.subckt sky130_fd_sc_hd__a221oi_1 A1 A2 B1 B2 C1 VGND VNB VPB VPWR Y
.ends

* Black-box entry subcircuit for sky130_ef_sc_hd__decap_12 abstract view
.subckt sky130_ef_sc_hd__decap_12 VPWR VGND VPB VNB
.ends

* Black-box entry subcircuit for sky130_fd_sc_hd__fill_1 abstract view
.subckt sky130_fd_sc_hd__fill_1 VGND VNB VPB VPWR
.ends

* Black-box entry subcircuit for sky130_fd_sc_hd__nand2_1 abstract view
.subckt sky130_fd_sc_hd__nand2_1 A B VGND VNB VPB VPWR Y
.ends

* Black-box entry subcircuit for sky130_fd_sc_hd__and4_1 abstract view
.subckt sky130_fd_sc_hd__and4_1 A B C D VGND VNB VPB VPWR X
.ends

* Black-box entry subcircuit for sky130_fd_sc_hd__and3b_1 abstract view
.subckt sky130_fd_sc_hd__and3b_1 A_N B C VGND VNB VPB VPWR X
.ends

* Black-box entry subcircuit for sky130_fd_sc_hd__fill_2 abstract view
.subckt sky130_fd_sc_hd__fill_2 VGND VNB VPB VPWR
.ends

* Black-box entry subcircuit for sky130_fd_sc_hd__decap_8 abstract view
.subckt sky130_fd_sc_hd__decap_8 VGND VNB VPB VPWR
.ends

* Black-box entry subcircuit for sky130_fd_sc_hd__decap_3 abstract view
.subckt sky130_fd_sc_hd__decap_3 VGND VNB VPB VPWR
.ends

* Black-box entry subcircuit for sky130_fd_sc_hd__clkbuf_4 abstract view
.subckt sky130_fd_sc_hd__clkbuf_4 A VGND VNB VPB VPWR X
.ends

* Black-box entry subcircuit for sky130_fd_sc_hd__a211o_1 abstract view
.subckt sky130_fd_sc_hd__a211o_1 A1 A2 B1 C1 VGND VNB VPB VPWR X
.ends

* Black-box entry subcircuit for sky130_fd_sc_hd__or2_1 abstract view
.subckt sky130_fd_sc_hd__or2_1 A B VGND VNB VPB VPWR X
.ends

* Black-box entry subcircuit for sky130_fd_sc_hd__a21o_1 abstract view
.subckt sky130_fd_sc_hd__a21o_1 A1 A2 B1 VGND VNB VPB VPWR X
.ends

* Black-box entry subcircuit for sky130_fd_sc_hd__decap_4 abstract view
.subckt sky130_fd_sc_hd__decap_4 VGND VNB VPB VPWR
.ends

* Black-box entry subcircuit for sky130_fd_sc_hd__a21oi_1 abstract view
.subckt sky130_fd_sc_hd__a21oi_1 A1 A2 B1 VGND VNB VPB VPWR Y
.ends

* Black-box entry subcircuit for sky130_fd_sc_hd__a31o_1 abstract view
.subckt sky130_fd_sc_hd__a31o_1 A1 A2 A3 B1 VGND VNB VPB VPWR X
.ends

* Black-box entry subcircuit for sky130_fd_sc_hd__o21ai_1 abstract view
.subckt sky130_fd_sc_hd__o21ai_1 A1 A2 B1 VGND VNB VPB VPWR Y
.ends

* Black-box entry subcircuit for sky130_fd_sc_hd__a311o_1 abstract view
.subckt sky130_fd_sc_hd__a311o_1 A1 A2 A3 B1 C1 VGND VNB VPB VPWR X
.ends

* Black-box entry subcircuit for sky130_fd_sc_hd__a31oi_1 abstract view
.subckt sky130_fd_sc_hd__a31oi_1 A1 A2 A3 B1 VGND VNB VPB VPWR Y
.ends

* Black-box entry subcircuit for sky130_fd_sc_hd__a22o_1 abstract view
.subckt sky130_fd_sc_hd__a22o_1 A1 A2 B1 B2 VGND VNB VPB VPWR X
.ends

* Black-box entry subcircuit for sky130_fd_sc_hd__and2_1 abstract view
.subckt sky130_fd_sc_hd__and2_1 A B VGND VNB VPB VPWR X
.ends

* Black-box entry subcircuit for sky130_fd_sc_hd__a2bb2o_1 abstract view
.subckt sky130_fd_sc_hd__a2bb2o_1 A1_N A2_N B1 B2 VGND VNB VPB VPWR X
.ends

* Black-box entry subcircuit for sky130_fd_sc_hd__o22a_1 abstract view
.subckt sky130_fd_sc_hd__o22a_1 A1 A2 B1 B2 VGND VNB VPB VPWR X
.ends

* Black-box entry subcircuit for sky130_fd_sc_hd__buf_2 abstract view
.subckt sky130_fd_sc_hd__buf_2 A VGND VNB VPB VPWR X
.ends

* Black-box entry subcircuit for sky130_fd_sc_hd__nand3_1 abstract view
.subckt sky130_fd_sc_hd__nand3_1 A B C VGND VNB VPB VPWR Y
.ends

* Black-box entry subcircuit for sky130_fd_sc_hd__decap_6 abstract view
.subckt sky130_fd_sc_hd__decap_6 VGND VNB VPB VPWR
.ends

* Black-box entry subcircuit for sky130_fd_sc_hd__nor2_1 abstract view
.subckt sky130_fd_sc_hd__nor2_1 A B VGND VNB VPB VPWR Y
.ends

* Black-box entry subcircuit for sky130_fd_sc_hd__clkbuf_2 abstract view
.subckt sky130_fd_sc_hd__clkbuf_2 A VGND VNB VPB VPWR X
.ends

* Black-box entry subcircuit for sky130_fd_sc_hd__or3_1 abstract view
.subckt sky130_fd_sc_hd__or3_1 A B C VGND VNB VPB VPWR X
.ends

* Black-box entry subcircuit for sky130_fd_sc_hd__inv_2 abstract view
.subckt sky130_fd_sc_hd__inv_2 A VGND VNB VPB VPWR Y
.ends

* Black-box entry subcircuit for sky130_fd_sc_hd__buf_8 abstract view
.subckt sky130_fd_sc_hd__buf_8 A VGND VNB VPB VPWR X
.ends

* Black-box entry subcircuit for sky130_fd_sc_hd__or3b_1 abstract view
.subckt sky130_fd_sc_hd__or3b_1 A B C_N VGND VNB VPB VPWR X
.ends

* Black-box entry subcircuit for sky130_fd_sc_hd__o21a_1 abstract view
.subckt sky130_fd_sc_hd__o21a_1 A1 A2 B1 VGND VNB VPB VPWR X
.ends

* Black-box entry subcircuit for sky130_fd_sc_hd__a32o_1 abstract view
.subckt sky130_fd_sc_hd__a32o_1 A1 A2 A3 B1 B2 VGND VNB VPB VPWR X
.ends

* Black-box entry subcircuit for sky130_fd_sc_hd__xnor2_1 abstract view
.subckt sky130_fd_sc_hd__xnor2_1 A B VGND VNB VPB VPWR Y
.ends

* Black-box entry subcircuit for sky130_fd_sc_hd__and3b_2 abstract view
.subckt sky130_fd_sc_hd__and3b_2 A_N B C VGND VNB VPB VPWR X
.ends

* Black-box entry subcircuit for sky130_fd_sc_hd__buf_6 abstract view
.subckt sky130_fd_sc_hd__buf_6 A VGND VNB VPB VPWR X
.ends

* Black-box entry subcircuit for sky130_fd_sc_hd__o211ai_1 abstract view
.subckt sky130_fd_sc_hd__o211ai_1 A1 A2 B1 C1 VGND VNB VPB VPWR Y
.ends

* Black-box entry subcircuit for sky130_fd_sc_hd__and2b_1 abstract view
.subckt sky130_fd_sc_hd__and2b_1 A_N B VGND VNB VPB VPWR X
.ends

* Black-box entry subcircuit for sky130_fd_sc_hd__or3b_4 abstract view
.subckt sky130_fd_sc_hd__or3b_4 A B C_N VGND VNB VPB VPWR X
.ends

* Black-box entry subcircuit for sky130_fd_sc_hd__nand3b_4 abstract view
.subckt sky130_fd_sc_hd__nand3b_4 A_N B C VGND VNB VPB VPWR Y
.ends

* Black-box entry subcircuit for sky130_fd_sc_hd__o21bai_1 abstract view
.subckt sky130_fd_sc_hd__o21bai_1 A1 A2 B1_N VGND VNB VPB VPWR Y
.ends

* Black-box entry subcircuit for sky130_fd_sc_hd__or2b_1 abstract view
.subckt sky130_fd_sc_hd__or2b_1 A B_N VGND VNB VPB VPWR X
.ends

* Black-box entry subcircuit for sky130_fd_sc_hd__or3_4 abstract view
.subckt sky130_fd_sc_hd__or3_4 A B C VGND VNB VPB VPWR X
.ends

* Black-box entry subcircuit for sky130_fd_sc_hd__nor2_2 abstract view
.subckt sky130_fd_sc_hd__nor2_2 A B VGND VNB VPB VPWR Y
.ends

* Black-box entry subcircuit for sky130_fd_sc_hd__and3_1 abstract view
.subckt sky130_fd_sc_hd__and3_1 A B C VGND VNB VPB VPWR X
.ends

* Black-box entry subcircuit for sky130_fd_sc_hd__buf_1 abstract view
.subckt sky130_fd_sc_hd__buf_1 A VGND VNB VPB VPWR X
.ends

* Black-box entry subcircuit for sky130_fd_sc_hd__nor3_1 abstract view
.subckt sky130_fd_sc_hd__nor3_1 A B C VGND VNB VPB VPWR Y
.ends

* Black-box entry subcircuit for sky130_fd_sc_hd__clkbuf_1 abstract view
.subckt sky130_fd_sc_hd__clkbuf_1 A VGND VNB VPB VPWR X
.ends

* Black-box entry subcircuit for sky130_fd_sc_hd__or4_1 abstract view
.subckt sky130_fd_sc_hd__or4_1 A B C D VGND VNB VPB VPWR X
.ends

* Black-box entry subcircuit for sky130_fd_sc_hd__nor2b_2 abstract view
.subckt sky130_fd_sc_hd__nor2b_2 A B_N VGND VNB VPB VPWR Y
.ends

* Black-box entry subcircuit for sky130_fd_sc_hd__a22oi_2 abstract view
.subckt sky130_fd_sc_hd__a22oi_2 A1 A2 B1 B2 VGND VNB VPB VPWR Y
.ends

* Black-box entry subcircuit for sky130_fd_sc_hd__xor2_1 abstract view
.subckt sky130_fd_sc_hd__xor2_1 A B VGND VNB VPB VPWR X
.ends

* Black-box entry subcircuit for sky130_fd_sc_hd__or4b_4 abstract view
.subckt sky130_fd_sc_hd__or4b_4 A B C D_N VGND VNB VPB VPWR X
.ends

* Black-box entry subcircuit for sky130_fd_sc_hd__o21ba_1 abstract view
.subckt sky130_fd_sc_hd__o21ba_1 A1 A2 B1_N VGND VNB VPB VPWR X
.ends

* Black-box entry subcircuit for sky130_fd_sc_hd__or3_2 abstract view
.subckt sky130_fd_sc_hd__or3_2 A B C VGND VNB VPB VPWR X
.ends

* Black-box entry subcircuit for sky130_fd_sc_hd__o31a_1 abstract view
.subckt sky130_fd_sc_hd__o31a_1 A1 A2 A3 B1 VGND VNB VPB VPWR X
.ends

.subckt alu A[0] A[1] A[2] A[3] A[4] A[5] A[6] A[7] B[0] B[1] B[2] B[3] B[4] B[5]
+ B[6] B[7] VGND VPWR opcode[0] opcode[1] opcode[2] out[0] out[1] out[2] out[3] out[4]
+ out[5] out[6] out[7]
XTAP_TAPCELL_ROW_15_106 VGND VPWR sky130_fd_sc_hd__tapvpwrvgnd_1
X_294_ _115_ net1 net19 net17 net18 VGND VGND VPWR VPWR _054_ sky130_fd_sc_hd__a221oi_1
XTAP_TAPCELL_ROW_20_120 VGND VPWR sky130_fd_sc_hd__tapvpwrvgnd_1
XFILLER_0_18_29 VPWR VGND VPWR VGND sky130_ef_sc_hd__decap_12
XFILLER_0_24_83 VGND VGND VPWR VPWR sky130_fd_sc_hd__fill_1
X_277_ net19 _093_ VGND VGND VPWR VPWR _039_ sky130_fd_sc_hd__nand2_1
X_200_ _115_ net1 _095_ _098_ VGND VGND VPWR VPWR _128_ sky130_fd_sc_hd__and4_1
X_329_ _003_ _084_ _143_ VGND VGND VPWR VPWR _085_ sky130_fd_sc_hd__and3b_1
XFILLER_0_9_27 VPWR VGND VPWR VGND sky130_ef_sc_hd__decap_12
XFILLER_0_10_41 VGND VGND VPWR VPWR sky130_fd_sc_hd__fill_2
XFILLER_0_10_74 VGND VGND VPWR VPWR sky130_fd_sc_hd__fill_2
XFILLER_0_19_169 VPWR VGND VPWR VGND sky130_ef_sc_hd__decap_12
XFILLER_0_19_125 VGND VGND VPWR VPWR sky130_fd_sc_hd__decap_8
XPHY_EDGE_ROW_8_Left_36 VGND VGND VPWR VPWR sky130_fd_sc_hd__decap_3
XFILLER_0_26_29 VPWR VGND VPWR VGND sky130_ef_sc_hd__decap_12
XFILLER_0_12_153 VPWR VGND VPWR VGND sky130_ef_sc_hd__decap_12
Xoutput20 net20 VGND VGND VPWR VPWR out[0] sky130_fd_sc_hd__clkbuf_4
XTAP_TAPCELL_ROW_18_115 VGND VPWR sky130_fd_sc_hd__tapvpwrvgnd_1
XFILLER_0_27_83 VGND VGND VPWR VPWR sky130_fd_sc_hd__fill_1
X_293_ _143_ _049_ _052_ _053_ VGND VGND VPWR VPWR net27 sky130_fd_sc_hd__a211o_1
XPHY_EDGE_ROW_21_Left_49 VGND VGND VPWR VPWR sky130_fd_sc_hd__decap_3
XFILLER_0_3_18 VPWR VGND VPWR VGND sky130_ef_sc_hd__decap_12
XFILLER_0_2_109 VPWR VGND VPWR VGND sky130_ef_sc_hd__decap_12
XFILLER_0_13_74 VGND VGND VPWR VPWR sky130_fd_sc_hd__decap_3
XTAP_TAPCELL_ROW_20_121 VGND VPWR sky130_fd_sc_hd__tapvpwrvgnd_1
X_276_ _036_ _037_ VGND VGND VPWR VPWR _038_ sky130_fd_sc_hd__or2_1
XPHY_EDGE_ROW_21_Right_21 VGND VGND VPWR VPWR sky130_fd_sc_hd__decap_3
XPHY_EDGE_ROW_12_Right_12 VGND VGND VPWR VPWR sky130_fd_sc_hd__decap_3
XFILLER_0_4_83 VGND VGND VPWR VPWR sky130_fd_sc_hd__fill_1
X_259_ _094_ _142_ _021_ VGND VGND VPWR VPWR net25 sky130_fd_sc_hd__a21o_1
X_328_ _154_ _002_ _151_ VGND VGND VPWR VPWR _084_ sky130_fd_sc_hd__a21o_1
XFILLER_0_0_19 VGND VGND VPWR VPWR sky130_fd_sc_hd__decap_8
XFILLER_0_9_39 VGND VGND VPWR VPWR sky130_fd_sc_hd__decap_3
XPHY_EDGE_ROW_24_Left_52 VGND VGND VPWR VPWR sky130_fd_sc_hd__decap_3
XFILLER_0_19_137 VPWR VGND VPWR VGND sky130_ef_sc_hd__decap_12
XFILLER_0_19_51 VGND VGND VPWR VPWR sky130_fd_sc_hd__fill_1
XFILLER_0_26_19 VGND VGND VPWR VPWR sky130_fd_sc_hd__decap_8
XFILLER_0_1_51 VGND VGND VPWR VPWR sky130_fd_sc_hd__decap_4
XFILLER_0_16_85 VPWR VGND VPWR VGND sky130_ef_sc_hd__decap_12
XFILLER_0_16_41 VGND VGND VPWR VPWR sky130_fd_sc_hd__fill_1
XFILLER_0_6_29 VPWR VGND VPWR VGND sky130_ef_sc_hd__decap_12
XFILLER_0_12_165 VPWR VGND VPWR VGND sky130_ef_sc_hd__decap_12
XPHY_EDGE_ROW_6_Right_6 VGND VGND VPWR VPWR sky130_fd_sc_hd__decap_3
Xoutput21 net21 VGND VGND VPWR VPWR out[1] sky130_fd_sc_hd__clkbuf_4
XFILLER_0_7_181 VGND VGND VPWR VPWR sky130_fd_sc_hd__decap_8
XTAP_TAPCELL_ROW_23_130 VGND VPWR sky130_fd_sc_hd__tapvpwrvgnd_1
X_292_ _034_ _038_ _039_ VGND VGND VPWR VPWR _053_ sky130_fd_sc_hd__a21oi_1
X_275_ _122_ _140_ _139_ VGND VGND VPWR VPWR _037_ sky130_fd_sc_hd__a21o_1
XFILLER_0_24_85 VGND VGND VPWR VPWR sky130_fd_sc_hd__decap_8
XFILLER_0_24_41 VPWR VGND VPWR VGND sky130_ef_sc_hd__decap_12
XFILLER_0_19_149 VPWR VGND VPWR VGND sky130_ef_sc_hd__decap_12
X_258_ _143_ _010_ _011_ _020_ VGND VGND VPWR VPWR _021_ sky130_fd_sc_hd__a31o_1
X_327_ _131_ _075_ _083_ VGND VGND VPWR VPWR net23 sky130_fd_sc_hd__o21ai_1
X_189_ net9 net2 net10 net3 VGND VGND VPWR VPWR _117_ sky130_fd_sc_hd__and4_1
XFILLER_0_25_108 VGND VGND VPWR VPWR sky130_fd_sc_hd__decap_4
XFILLER_0_24_152 VPWR VGND VPWR VGND sky130_ef_sc_hd__decap_12
XFILLER_0_21_31 VPWR VGND VPWR VGND sky130_ef_sc_hd__decap_12
XFILLER_0_21_111 VGND VGND VPWR VPWR sky130_fd_sc_hd__fill_1
XFILLER_0_16_97 VGND VGND VPWR VPWR sky130_fd_sc_hd__decap_8
XFILLER_0_12_177 VGND VGND VPWR VPWR sky130_fd_sc_hd__decap_8
XFILLER_0_8_116 VGND VGND VPWR VPWR sky130_fd_sc_hd__fill_1
Xoutput22 net22 VGND VGND VPWR VPWR out[2] sky130_fd_sc_hd__clkbuf_4
XFILLER_0_9_3 VPWR VGND VPWR VGND sky130_ef_sc_hd__decap_12
XFILLER_0_27_63 VPWR VGND VPWR VGND sky130_ef_sc_hd__decap_12
X_291_ net8 net16 _012_ _050_ _051_ VGND VGND VPWR VPWR _052_ sky130_fd_sc_hd__a311o_1
XFILLER_0_4_141 VPWR VGND VPWR VGND sky130_ef_sc_hd__decap_12
XFILLER_0_13_43 VGND VGND VPWR VPWR sky130_fd_sc_hd__fill_1
XFILLER_0_1_111 VGND VGND VPWR VPWR sky130_fd_sc_hd__fill_1
X_274_ _034_ _035_ VGND VGND VPWR VPWR _036_ sky130_fd_sc_hd__nand2_1
XFILLER_0_0_7 VPWR VGND VPWR VGND sky130_ef_sc_hd__decap_12
XFILLER_0_24_53 VPWR VGND VPWR VGND sky130_ef_sc_hd__decap_12
XFILLER_0_4_41 VPWR VGND VPWR VGND sky130_ef_sc_hd__decap_12
XFILLER_0_4_85 VPWR VGND VPWR VGND sky130_ef_sc_hd__decap_12
X_257_ net14 net6 _012_ _014_ _019_ VGND VGND VPWR VPWR _020_ sky130_fd_sc_hd__a311o_1
XFILLER_0_19_75 VGND VGND VPWR VPWR sky130_fd_sc_hd__decap_8
X_326_ _143_ _077_ _078_ _082_ VGND VGND VPWR VPWR _083_ sky130_fd_sc_hd__a31oi_1
X_188_ net2 net10 _099_ _115_ VGND VGND VPWR VPWR _116_ sky130_fd_sc_hd__a22o_1
XFILLER_0_10_66 VGND VGND VPWR VPWR sky130_fd_sc_hd__decap_8
XFILLER_0_21_43 VPWR VGND VPWR VGND sky130_ef_sc_hd__decap_12
X_309_ _157_ _163_ VGND VGND VPWR VPWR _067_ sky130_fd_sc_hd__and2_1
XFILLER_0_24_164 VPWR VGND VPWR VGND sky130_ef_sc_hd__decap_12
XTAP_TAPCELL_ROW_10_90 VGND VPWR sky130_fd_sc_hd__tapvpwrvgnd_1
XFILLER_0_12_145 VGND VGND VPWR VPWR sky130_fd_sc_hd__fill_1
Xoutput23 net23 VGND VGND VPWR VPWR out[3] sky130_fd_sc_hd__clkbuf_4
XFILLER_0_27_75 VGND VGND VPWR VPWR sky130_fd_sc_hd__decap_8
XFILLER_0_4_153 VPWR VGND VPWR VGND sky130_ef_sc_hd__decap_12
XFILLER_0_7_74 VPWR VGND VPWR VGND sky130_ef_sc_hd__decap_12
X_290_ _017_ _046_ _045_ _015_ VGND VGND VPWR VPWR _051_ sky130_fd_sc_hd__a2bb2o_1
XFILLER_0_1_189 VGND VGND VPWR VPWR sky130_fd_sc_hd__fill_1
XFILLER_0_1_167 VGND VGND VPWR VPWR sky130_fd_sc_hd__fill_1
XTAP_TAPCELL_ROW_3_70 VGND VPWR sky130_fd_sc_hd__tapvpwrvgnd_1
X_273_ _102_ _096_ _033_ VGND VGND VPWR VPWR _035_ sky130_fd_sc_hd__a21o_1
XFILLER_0_24_65 VPWR VGND VPWR VGND sky130_ef_sc_hd__decap_12
XFILLER_0_4_53 VPWR VGND VPWR VGND sky130_ef_sc_hd__decap_12
XFILLER_0_4_97 VPWR VGND VPWR VGND sky130_ef_sc_hd__decap_12
X_256_ net14 net6 _015_ _018_ VGND VGND VPWR VPWR _019_ sky130_fd_sc_hd__o22a_1
X_325_ _102_ _096_ _012_ _080_ _081_ VGND VGND VPWR VPWR _082_ sky130_fd_sc_hd__a311o_1
XTAP_TAPCELL_ROW_0_60 VGND VPWR sky130_fd_sc_hd__tapvpwrvgnd_1
X_187_ net9 VGND VGND VPWR VPWR _115_ sky130_fd_sc_hd__buf_2
XFILLER_0_24_176 VPWR VGND VPWR VGND sky130_ef_sc_hd__decap_12
XFILLER_0_21_99 VPWR VGND VPWR VGND sky130_ef_sc_hd__decap_12
XFILLER_0_21_55 VGND VGND VPWR VPWR sky130_fd_sc_hd__fill_1
X_239_ _163_ _157_ _164_ _001_ VGND VGND VPWR VPWR _002_ sky130_fd_sc_hd__a211o_1
X_308_ _127_ _128_ _094_ VGND VGND VPWR VPWR _066_ sky130_fd_sc_hd__o21ai_1
XTAP_TAPCELL_ROW_10_91 VGND VPWR sky130_fd_sc_hd__tapvpwrvgnd_1
XFILLER_0_21_146 VGND VGND VPWR VPWR sky130_fd_sc_hd__fill_1
XFILLER_0_21_113 VPWR VGND VPWR VGND sky130_ef_sc_hd__decap_12
XFILLER_0_16_55 VGND VGND VPWR VPWR sky130_fd_sc_hd__fill_2
XFILLER_0_8_129 VGND VGND VPWR VPWR sky130_fd_sc_hd__fill_2
Xoutput24 net24 VGND VGND VPWR VPWR out[4] sky130_fd_sc_hd__clkbuf_4
XFILLER_0_25_3 VPWR VGND VPWR VGND sky130_ef_sc_hd__decap_12
XPHY_EDGE_ROW_19_Right_19 VGND VGND VPWR VPWR sky130_fd_sc_hd__decap_3
XPHY_EDGE_ROW_15_Left_43 VGND VGND VPWR VPWR sky130_fd_sc_hd__decap_3
XFILLER_0_4_121 VPWR VGND VPWR VGND sky130_ef_sc_hd__decap_12
XFILLER_0_4_165 VPWR VGND VPWR VGND sky130_ef_sc_hd__decap_12
XFILLER_0_7_53 VGND VGND VPWR VPWR sky130_fd_sc_hd__decap_3
XFILLER_0_7_86 VGND VGND VPWR VPWR sky130_fd_sc_hd__decap_4
XFILLER_0_13_89 VPWR VGND VPWR VGND sky130_ef_sc_hd__decap_12
XFILLER_0_1_113 VPWR VGND VPWR VGND sky130_ef_sc_hd__decap_12
X_272_ _102_ _096_ _033_ VGND VGND VPWR VPWR _034_ sky130_fd_sc_hd__nand3_1
XPHY_EDGE_ROW_0_Left_28 VGND VGND VPWR VPWR sky130_fd_sc_hd__decap_3
XFILLER_0_24_77 VGND VGND VPWR VPWR sky130_fd_sc_hd__decap_6
XFILLER_0_4_65 VPWR VGND VPWR VGND sky130_ef_sc_hd__decap_12
X_255_ net14 net6 _017_ VGND VGND VPWR VPWR _018_ sky130_fd_sc_hd__a21oi_1
X_324_ _102_ _013_ VGND VGND VPWR VPWR _081_ sky130_fd_sc_hd__nor2_1
X_186_ _108_ _107_ _106_ VGND VGND VPWR VPWR _114_ sky130_fd_sc_hd__o21ai_1
XFILLER_0_19_66 VGND VGND VPWR VPWR sky130_fd_sc_hd__decap_3
XTAP_TAPCELL_ROW_0_61 VGND VPWR sky130_fd_sc_hd__tapvpwrvgnd_1
XFILLER_0_18_141 VPWR VGND VPWR VGND sky130_ef_sc_hd__decap_12
XPHY_EDGE_ROW_3_Left_31 VGND VGND VPWR VPWR sky130_fd_sc_hd__decap_3
XFILLER_0_24_188 VGND VGND VPWR VPWR sky130_fd_sc_hd__fill_2
X_169_ _095_ _096_ VGND VGND VPWR VPWR _097_ sky130_fd_sc_hd__nand2_1
X_238_ _000_ _156_ VGND VGND VPWR VPWR _001_ sky130_fd_sc_hd__nor2_1
XFILLER_0_1_55 VGND VGND VPWR VPWR sky130_fd_sc_hd__fill_1
X_307_ _143_ _058_ _065_ VGND VGND VPWR VPWR net21 sky130_fd_sc_hd__a21o_1
XFILLER_0_15_166 VGND VGND VPWR VPWR sky130_fd_sc_hd__fill_2
XFILLER_0_21_169 VPWR VGND VPWR VGND sky130_ef_sc_hd__decap_12
XFILLER_0_8_108 VGND VGND VPWR VPWR sky130_fd_sc_hd__decap_8
XFILLER_0_18_3 VPWR VGND VPWR VGND sky130_ef_sc_hd__decap_12
Xoutput25 net25 VGND VGND VPWR VPWR out[5] sky130_fd_sc_hd__clkbuf_4
XFILLER_0_27_55 VGND VGND VPWR VPWR sky130_fd_sc_hd__fill_1
XFILLER_0_4_133 VGND VGND VPWR VPWR sky130_fd_sc_hd__decap_6
XFILLER_0_4_177 VPWR VGND VPWR VGND sky130_ef_sc_hd__decap_12
XFILLER_0_7_65 VGND VGND VPWR VPWR sky130_fd_sc_hd__decap_3
XFILLER_0_7_3 VPWR VGND VPWR VGND sky130_ef_sc_hd__decap_12
XTAP_TAPCELL_ROW_14_101 VGND VPWR sky130_fd_sc_hd__tapvpwrvgnd_1
XFILLER_0_1_169 VPWR VGND VPWR VGND sky130_ef_sc_hd__decap_12
XFILLER_0_1_125 VPWR VGND VPWR VGND sky130_ef_sc_hd__decap_12
X_271_ _100_ _137_ _103_ VGND VGND VPWR VPWR _033_ sky130_fd_sc_hd__a21oi_1
XFILLER_0_4_77 VGND VGND VPWR VPWR sky130_fd_sc_hd__decap_6
X_323_ _102_ _096_ _015_ _079_ VGND VGND VPWR VPWR _080_ sky130_fd_sc_hd__o22a_1
X_254_ _016_ VGND VGND VPWR VPWR _017_ sky130_fd_sc_hd__clkbuf_2
X_185_ _108_ _106_ _107_ VGND VGND VPWR VPWR _113_ sky130_fd_sc_hd__or3_1
XFILLER_0_27_131 VGND VGND VPWR VPWR sky130_fd_sc_hd__decap_8
XFILLER_0_10_58 VGND VGND VPWR VPWR sky130_fd_sc_hd__decap_3
XFILLER_0_18_153 VPWR VGND VPWR VGND sky130_ef_sc_hd__decap_12
XFILLER_0_24_134 VGND VGND VPWR VPWR sky130_fd_sc_hd__decap_6
XFILLER_0_24_112 VGND VGND VPWR VPWR sky130_fd_sc_hd__decap_4
XFILLER_0_21_57 VPWR VGND VPWR VGND sky130_ef_sc_hd__decap_12
X_168_ net12 VGND VGND VPWR VPWR _096_ sky130_fd_sc_hd__buf_2
X_237_ _099_ VGND VGND VPWR VPWR _000_ sky130_fd_sc_hd__inv_2
X_306_ _060_ _061_ _064_ VGND VGND VPWR VPWR _065_ sky130_fd_sc_hd__or3_1
XFILLER_0_15_189 VGND VGND VPWR VPWR sky130_fd_sc_hd__fill_1
XFILLER_0_11_90 VGND VGND VPWR VPWR sky130_fd_sc_hd__decap_8
Xoutput26 net26 VGND VGND VPWR VPWR out[6] sky130_fd_sc_hd__buf_8
XPHY_EDGE_ROW_1_Right_1 VGND VGND VPWR VPWR sky130_fd_sc_hd__decap_3
XFILLER_0_11_181 VGND VGND VPWR VPWR sky130_fd_sc_hd__decap_8
XFILLER_0_27_12 VPWR VGND VPWR VGND sky130_ef_sc_hd__decap_12
XTAP_TAPCELL_ROW_17_110 VGND VPWR sky130_fd_sc_hd__tapvpwrvgnd_1
XFILLER_0_4_189 VGND VGND VPWR VPWR sky130_fd_sc_hd__fill_1
XTAP_TAPCELL_ROW_14_102 VGND VPWR sky130_fd_sc_hd__tapvpwrvgnd_1
XFILLER_0_1_137 VPWR VGND VPWR VGND sky130_ef_sc_hd__decap_12
X_270_ net7 net15 _015_ _031_ VGND VGND VPWR VPWR _032_ sky130_fd_sc_hd__o22a_1
X_322_ _102_ _096_ _017_ VGND VGND VPWR VPWR _079_ sky130_fd_sc_hd__a21oi_1
X_253_ net17 net18 net19 VGND VGND VPWR VPWR _016_ sky130_fd_sc_hd__or3b_1
XFILLER_0_10_15 VPWR VGND VPWR VGND sky130_ef_sc_hd__decap_12
X_184_ net1 _096_ VGND VGND VPWR VPWR _112_ sky130_fd_sc_hd__nand2_1
XFILLER_0_18_165 VPWR VGND VPWR VGND sky130_ef_sc_hd__decap_12
XFILLER_0_21_69 VGND VGND VPWR VPWR sky130_fd_sc_hd__decap_8
X_236_ _152_ _153_ _102_ VGND VGND VPWR VPWR _164_ sky130_fd_sc_hd__o21a_1
X_167_ net2 VGND VGND VPWR VPWR _095_ sky130_fd_sc_hd__buf_2
X_305_ _095_ _098_ _012_ _062_ _063_ VGND VGND VPWR VPWR _064_ sky130_fd_sc_hd__a32o_1
XFILLER_0_15_135 VGND VGND VPWR VPWR sky130_fd_sc_hd__fill_1
XFILLER_0_15_113 VPWR VGND VPWR VGND sky130_ef_sc_hd__decap_12
XFILLER_0_1_57 VPWR VGND VPWR VGND sky130_ef_sc_hd__decap_12
XFILLER_0_21_138 VGND VGND VPWR VPWR sky130_fd_sc_hd__decap_8
X_219_ net12 _144_ _146_ VGND VGND VPWR VPWR _147_ sky130_fd_sc_hd__o21a_1
Xoutput27 net27 VGND VGND VPWR VPWR out[7] sky130_fd_sc_hd__clkbuf_4
XFILLER_0_7_132 VPWR VGND VPWR VGND sky130_ef_sc_hd__decap_12
XFILLER_0_27_35 VPWR VGND VPWR VGND sky130_ef_sc_hd__decap_12
XFILLER_0_27_24 VGND VGND VPWR VPWR sky130_fd_sc_hd__decap_4
XTAP_TAPCELL_ROW_17_111 VGND VPWR sky130_fd_sc_hd__tapvpwrvgnd_1
XPHY_EDGE_ROW_24_Right_24 VGND VGND VPWR VPWR sky130_fd_sc_hd__decap_3
XFILLER_0_23_3 VPWR VGND VPWR VGND sky130_ef_sc_hd__decap_12
XPHY_EDGE_ROW_15_Right_15 VGND VGND VPWR VPWR sky130_fd_sc_hd__decap_3
XTAP_TAPCELL_ROW_14_103 VGND VPWR sky130_fd_sc_hd__tapvpwrvgnd_1
XFILLER_0_13_15 VPWR VGND VPWR VGND sky130_ef_sc_hd__decap_12
XFILLER_0_1_105 VGND VGND VPWR VPWR sky130_fd_sc_hd__decap_6
XPHY_EDGE_ROW_19_Left_47 VGND VGND VPWR VPWR sky130_fd_sc_hd__decap_3
XFILLER_0_1_149 VPWR VGND VPWR VGND sky130_ef_sc_hd__decap_12
X_183_ _097_ _110_ VGND VGND VPWR VPWR _111_ sky130_fd_sc_hd__xnor2_1
X_321_ _154_ _076_ _067_ _001_ VGND VGND VPWR VPWR _078_ sky130_fd_sc_hd__a211o_1
X_252_ net19 net17 net18 VGND VGND VPWR VPWR _015_ sky130_fd_sc_hd__and3b_2
XFILLER_0_10_27 VGND VGND VPWR VPWR sky130_fd_sc_hd__fill_1
XFILLER_0_27_111 VGND VGND VPWR VPWR sky130_fd_sc_hd__fill_1
XFILLER_0_18_111 VPWR VGND VPWR VGND sky130_ef_sc_hd__decap_12
XFILLER_0_18_100 VGND VGND VPWR VPWR sky130_fd_sc_hd__decap_8
XFILLER_0_18_177 VPWR VGND VPWR VGND sky130_ef_sc_hd__decap_12
X_235_ _161_ _160_ _162_ VGND VGND VPWR VPWR _163_ sky130_fd_sc_hd__a21o_1
X_304_ _128_ _039_ VGND VGND VPWR VPWR _063_ sky130_fd_sc_hd__nor2_1
XFILLER_0_15_169 VPWR VGND VPWR VGND sky130_ef_sc_hd__decap_12
XFILLER_0_15_147 VGND VGND VPWR VPWR sky130_fd_sc_hd__fill_2
XFILLER_0_15_125 VGND VGND VPWR VPWR sky130_fd_sc_hd__decap_4
XFILLER_0_15_103 VGND VGND VPWR VPWR sky130_fd_sc_hd__decap_3
XFILLER_0_1_69 VPWR VGND VPWR VGND sky130_ef_sc_hd__decap_12
X_166_ net19 _093_ VGND VGND VPWR VPWR _094_ sky130_fd_sc_hd__and2_1
XPHY_EDGE_ROW_7_Left_35 VGND VGND VPWR VPWR sky130_fd_sc_hd__decap_3
XFILLER_0_16_15 VPWR VGND VPWR VGND sky130_ef_sc_hd__decap_12
X_218_ _145_ VGND VGND VPWR VPWR _146_ sky130_fd_sc_hd__buf_6
XFILLER_0_12_106 VGND VGND VPWR VPWR sky130_fd_sc_hd__decap_8
XFILLER_0_12_128 VPWR VGND VPWR VGND sky130_ef_sc_hd__decap_12
XFILLER_0_7_111 VGND VGND VPWR VPWR sky130_fd_sc_hd__fill_1
XFILLER_0_7_144 VPWR VGND VPWR VGND sky130_ef_sc_hd__decap_12
XFILLER_0_27_47 VGND VGND VPWR VPWR sky130_fd_sc_hd__decap_8
XTAP_TAPCELL_ROW_17_112 VGND VPWR sky130_fd_sc_hd__tapvpwrvgnd_1
XFILLER_0_16_3 VPWR VGND VPWR VGND sky130_ef_sc_hd__decap_12
XFILLER_0_7_57 VGND VGND VPWR VPWR sky130_fd_sc_hd__decap_8
XFILLER_0_13_27 VPWR VGND VPWR VGND sky130_ef_sc_hd__decap_12
XFILLER_0_24_15 VPWR VGND VPWR VGND sky130_ef_sc_hd__decap_12
XPHY_EDGE_ROW_20_Left_48 VGND VGND VPWR VPWR sky130_fd_sc_hd__decap_3
XFILLER_0_5_3 VPWR VGND VPWR VGND sky130_ef_sc_hd__decap_12
X_251_ net6 _013_ VGND VGND VPWR VPWR _014_ sky130_fd_sc_hd__nor2_1
XFILLER_0_19_15 VPWR VGND VPWR VGND sky130_ef_sc_hd__decap_12
X_182_ _105_ _109_ VGND VGND VPWR VPWR _110_ sky130_fd_sc_hd__xnor2_1
X_320_ _001_ _067_ _076_ _154_ VGND VGND VPWR VPWR _077_ sky130_fd_sc_hd__o211ai_1
XFILLER_0_27_167 VGND VGND VPWR VPWR sky130_fd_sc_hd__fill_1
XFILLER_0_18_189 VGND VGND VPWR VPWR sky130_fd_sc_hd__fill_1
XPHY_EDGE_ROW_23_Left_51 VGND VGND VPWR VPWR sky130_fd_sc_hd__decap_3
XFILLER_0_1_15 VPWR VGND VPWR VGND sky130_ef_sc_hd__decap_12
X_165_ net17 net18 VGND VGND VPWR VPWR _093_ sky130_fd_sc_hd__and2b_1
X_234_ _158_ _159_ _095_ VGND VGND VPWR VPWR _162_ sky130_fd_sc_hd__o21a_1
X_303_ _115_ _095_ _098_ net1 VGND VGND VPWR VPWR _062_ sky130_fd_sc_hd__a22o_1
XFILLER_0_23_181 VGND VGND VPWR VPWR sky130_fd_sc_hd__decap_8
XFILLER_0_16_27 VGND VGND VPWR VPWR sky130_fd_sc_hd__fill_1
XFILLER_0_14_170 VPWR VGND VPWR VGND sky130_ef_sc_hd__decap_12
X_217_ net18 net19 net17 VGND VGND VPWR VPWR _145_ sky130_fd_sc_hd__or3b_4
XFILLER_0_7_156 VPWR VGND VPWR VGND sky130_ef_sc_hd__decap_12
XFILLER_0_7_189 VGND VGND VPWR VPWR sky130_fd_sc_hd__fill_1
XFILLER_0_17_81 VGND VGND VPWR VPWR sky130_fd_sc_hd__fill_1
XFILLER_0_3_181 VGND VGND VPWR VPWR sky130_fd_sc_hd__decap_4
XPHY_EDGE_ROW_5_Right_5 VGND VGND VPWR VPWR sky130_fd_sc_hd__decap_3
XFILLER_0_13_39 VGND VGND VPWR VPWR sky130_fd_sc_hd__decap_4
XTAP_TAPCELL_ROW_20_119 VGND VPWR sky130_fd_sc_hd__tapvpwrvgnd_1
XFILLER_0_24_27 VGND VGND VPWR VPWR sky130_fd_sc_hd__fill_1
XFILLER_0_4_15 VPWR VGND VPWR VGND sky130_ef_sc_hd__decap_12
XFILLER_0_19_27 VPWR VGND VPWR VGND sky130_ef_sc_hd__decap_12
X_250_ net18 net17 net19 VGND VGND VPWR VPWR _013_ sky130_fd_sc_hd__nand3b_4
XFILLER_0_10_29 VPWR VGND VPWR VGND sky130_ef_sc_hd__decap_12
X_181_ _106_ _107_ _108_ VGND VGND VPWR VPWR _109_ sky130_fd_sc_hd__o21bai_1
XTAP_TAPCELL_ROW_9_86 VGND VPWR sky130_fd_sc_hd__tapvpwrvgnd_1
XFILLER_0_25_81 VPWR VGND VPWR VGND sky130_ef_sc_hd__decap_12
XFILLER_0_1_27 VPWR VGND VPWR VGND sky130_ef_sc_hd__decap_12
X_233_ net1 _115_ VGND VGND VPWR VPWR _161_ sky130_fd_sc_hd__or2b_1
X_302_ _095_ _013_ VGND VGND VPWR VPWR _061_ sky130_fd_sc_hd__nor2_1
XFILLER_0_14_182 VGND VGND VPWR VPWR sky130_fd_sc_hd__decap_8
XFILLER_0_20_163 VPWR VGND VPWR VGND sky130_ef_sc_hd__decap_12
XFILLER_0_7_113 VGND VGND VPWR VPWR sky130_fd_sc_hd__decap_3
X_216_ net9 net10 net11 VGND VGND VPWR VPWR _144_ sky130_fd_sc_hd__or3_1
XFILLER_0_7_15 VPWR VGND VPWR VGND sky130_ef_sc_hd__decap_12
XTAP_TAPCELL_ROW_23_128 VGND VPWR sky130_fd_sc_hd__tapvpwrvgnd_1
XPHY_EDGE_ROW_20_Right_20 VGND VGND VPWR VPWR sky130_fd_sc_hd__decap_3
XPHY_EDGE_ROW_11_Right_11 VGND VGND VPWR VPWR sky130_fd_sc_hd__decap_3
XFILLER_0_0_141 VPWR VGND VPWR VGND sky130_ef_sc_hd__decap_12
XFILLER_0_8_91 VGND VGND VPWR VPWR sky130_fd_sc_hd__fill_1
XFILLER_0_14_61 VPWR VGND VPWR VGND sky130_ef_sc_hd__decap_12
XFILLER_0_4_27 VGND VGND VPWR VPWR sky130_fd_sc_hd__fill_1
X_180_ net9 net10 net3 net4 VGND VGND VPWR VPWR _108_ sky130_fd_sc_hd__and4_1
XFILLER_0_27_147 VPWR VGND VPWR VGND sky130_ef_sc_hd__decap_12
XFILLER_0_27_103 VGND VGND VPWR VPWR sky130_fd_sc_hd__decap_8
XFILLER_0_19_39 VPWR VGND VPWR VGND sky130_ef_sc_hd__decap_12
XTAP_TAPCELL_ROW_0_56 VGND VPWR sky130_fd_sc_hd__tapvpwrvgnd_1
XTAP_TAPCELL_ROW_9_87 VGND VPWR sky130_fd_sc_hd__tapvpwrvgnd_1
XFILLER_0_25_93 VGND VGND VPWR VPWR sky130_fd_sc_hd__decap_6
XFILLER_0_5_81 VPWR VGND VPWR VGND sky130_ef_sc_hd__decap_12
X_301_ _095_ _098_ _015_ _059_ VGND VGND VPWR VPWR _060_ sky130_fd_sc_hd__o22a_1
X_232_ _095_ _159_ _158_ VGND VGND VPWR VPWR _160_ sky130_fd_sc_hd__or3_4
XFILLER_0_15_139 VGND VGND VPWR VPWR sky130_fd_sc_hd__decap_8
XFILLER_0_1_39 VPWR VGND VPWR VGND sky130_ef_sc_hd__decap_12
XFILLER_0_11_51 VGND VGND VPWR VPWR sky130_fd_sc_hd__decap_4
XFILLER_0_11_84 VGND VGND VPWR VPWR sky130_fd_sc_hd__decap_3
XFILLER_0_16_29 VPWR VGND VPWR VGND sky130_ef_sc_hd__decap_12
XFILLER_0_20_175 VPWR VGND VPWR VGND sky130_ef_sc_hd__decap_12
XTAP_TAPCELL_ROW_6_77 VGND VPWR sky130_fd_sc_hd__tapvpwrvgnd_1
X_215_ net19 net18 VGND VGND VPWR VPWR _143_ sky130_fd_sc_hd__nor2_2
XTAP_TAPCELL_ROW_26_137 VGND VPWR sky130_fd_sc_hd__tapvpwrvgnd_1
XFILLER_0_22_83 VGND VGND VPWR VPWR sky130_fd_sc_hd__fill_1
XFILLER_0_7_169 VPWR VGND VPWR VGND sky130_ef_sc_hd__decap_12
XFILLER_0_4_139 VGND VGND VPWR VPWR sky130_fd_sc_hd__fill_1
XFILLER_0_7_27 VPWR VGND VPWR VGND sky130_ef_sc_hd__decap_12
XTAP_TAPCELL_ROW_23_129 VGND VPWR sky130_fd_sc_hd__tapvpwrvgnd_1
XFILLER_0_3_161 VGND VGND VPWR VPWR sky130_fd_sc_hd__decap_6
XFILLER_0_0_153 VPWR VGND VPWR VGND sky130_ef_sc_hd__decap_12
XFILLER_0_14_3 VPWR VGND VPWR VGND sky130_ef_sc_hd__decap_12
XFILLER_0_24_29 VPWR VGND VPWR VGND sky130_ef_sc_hd__decap_12
XFILLER_0_14_73 VGND VGND VPWR VPWR sky130_fd_sc_hd__decap_6
XTAP_TAPCELL_ROW_13_98 VGND VPWR sky130_fd_sc_hd__tapvpwrvgnd_1
XFILLER_0_27_159 VGND VGND VPWR VPWR sky130_fd_sc_hd__decap_8
XTAP_TAPCELL_ROW_0_57 VGND VPWR sky130_fd_sc_hd__tapvpwrvgnd_1
XTAP_TAPCELL_ROW_9_88 VGND VPWR sky130_fd_sc_hd__tapvpwrvgnd_1
XFILLER_0_21_19 VPWR VGND VPWR VGND sky130_ef_sc_hd__decap_12
XFILLER_0_17_181 VGND VGND VPWR VPWR sky130_fd_sc_hd__decap_4
XFILLER_0_5_93 VPWR VGND VPWR VGND sky130_ef_sc_hd__decap_12
X_231_ _115_ _146_ _098_ VGND VGND VPWR VPWR _159_ sky130_fd_sc_hd__a21oi_1
X_300_ _095_ _098_ _017_ VGND VGND VPWR VPWR _059_ sky130_fd_sc_hd__a21oi_1
Xinput1 A[0] VGND VGND VPWR VPWR net1 sky130_fd_sc_hd__buf_2
XPHY_EDGE_ROW_27_Left_55 VGND VGND VPWR VPWR sky130_fd_sc_hd__decap_3
XFILLER_0_20_187 VGND VGND VPWR VPWR sky130_fd_sc_hd__decap_3
X_214_ _133_ _141_ VGND VGND VPWR VPWR _142_ sky130_fd_sc_hd__xnor2_1
XTAP_TAPCELL_ROW_6_78 VGND VPWR sky130_fd_sc_hd__tapvpwrvgnd_1
XPHY_EDGE_ROW_11_Left_39 VGND VGND VPWR VPWR sky130_fd_sc_hd__decap_3
XTAP_TAPCELL_ROW_26_138 VGND VPWR sky130_fd_sc_hd__tapvpwrvgnd_1
XFILLER_0_2_83 VGND VGND VPWR VPWR sky130_fd_sc_hd__fill_1
XFILLER_0_17_95 VGND VGND VPWR VPWR sky130_fd_sc_hd__decap_4
XFILLER_0_7_39 VGND VGND VPWR VPWR sky130_fd_sc_hd__decap_8
XTAP_TAPCELL_ROW_3_68 VGND VPWR sky130_fd_sc_hd__tapvpwrvgnd_1
XPHY_EDGE_ROW_9_Right_9 VGND VGND VPWR VPWR sky130_fd_sc_hd__decap_3
XPHY_EDGE_ROW_14_Left_42 VGND VGND VPWR VPWR sky130_fd_sc_hd__decap_3
XFILLER_0_0_165 VGND VGND VPWR VPWR sky130_fd_sc_hd__decap_3
XFILLER_0_8_60 VGND VGND VPWR VPWR sky130_fd_sc_hd__decap_4
XFILLER_0_8_82 VGND VGND VPWR VPWR sky130_fd_sc_hd__fill_2
XFILLER_0_4_29 VPWR VGND VPWR VGND sky130_ef_sc_hd__decap_12
XTAP_TAPCELL_ROW_13_99 VGND VPWR sky130_fd_sc_hd__tapvpwrvgnd_1
XFILLER_0_14_41 VGND VGND VPWR VPWR sky130_fd_sc_hd__decap_8