*SPEF "ieee 1481-1999"
*DESIGN "alu"
*DATE "14:12:35 Saturday May 03, 2025"
*VENDOR "The OpenROAD Project"
*PROGRAM "OpenROAD"
*VERSION "b16bda7e82721d10566ff7e2b68f1ff0be9f9e38"
*DESIGN_FLOW "NAME_SCOPE LOCAL" "PIN_CAP NONE"
*DIVIDER /
*DELIMITER :
*BUS_DELIMITER []
*T_UNIT 1 NS
*C_UNIT 1 PF
*R_UNIT 1 OHM
*L_UNIT 1 HENRY

*NAME_MAP
*1 A[0]
*2 A[1]
*3 A[2]
*4 A[3]
*5 A[4]
*6 A[5]
*7 A[6]
*8 A[7]
*9 B[0]
*10 B[1]
*11 B[2]
*12 B[3]
*13 B[4]
*14 B[5]
*15 B[6]
*16 B[7]
*19 opcode[0]
*20 opcode[1]
*21 opcode[2]
*22 out[0]
*23 out[1]
*24 out[2]
*25 out[3]
*26 out[4]
*27 out[5]
*28 out[6]
*29 out[7]
*30 _000_
*31 _001_
*32 _002_
*33 _003_
*34 _004_
*35 _005_
*36 _006_
*37 _007_
*38 _008_
*39 _009_
*40 _010_
*41 _011_
*42 _012_
*43 _013_
*44 _014_
*45 _015_
*46 _016_
*47 _017_
*48 _018_
*49 _019_
*50 _020_
*51 _021_
*52 _022_
*53 _023_
*54 _024_
*55 _025_
*56 _026_
*57 _027_
*58 _028_
*59 _029_
*60 _030_
*61 _031_
*62 _032_
*63 _033_
*64 _034_
*65 _035_
*66 _036_
*67 _037_
*68 _038_
*69 _039_
*70 _040_
*71 _041_
*72 _042_
*73 _043_
*74 _044_
*75 _045_
*76 _046_
*77 _047_
*78 _048_
*79 _049_
*80 _050_
*81 _051_
*82 _052_
*83 _053_
*84 _054_
*85 _055_
*86 _056_
*87 _057_
*88 _058_
*89 _059_
*90 _060_
*91 _061_
*92 _062_
*93 _063_
*94 _064_
*95 _065_
*96 _066_
*97 _067_
*98 _068_
*99 _069_
*100 _070_
*101 _071_
*102 _072_
*103 _073_
*104 _074_
*105 _075_
*106 _076_
*107 _077_
*108 _078_
*109 _079_
*110 _080_
*111 _081_
*112 _082_
*113 _083_
*114 _084_
*115 _085_
*116 _086_
*117 _087_
*118 _088_
*119 _089_
*120 _090_
*121 _091_
*122 _092_
*123 _093_
*124 _094_
*125 _095_
*126 _096_
*127 _097_
*128 _098_
*129 _099_
*130 _100_
*131 _101_
*132 _102_
*133 _103_
*134 _104_
*135 _105_
*136 _106_
*137 _107_
*138 _108_
*139 _109_
*140 _110_
*141 _111_
*142 _112_
*143 _113_
*144 _114_
*145 _115_
*146 _116_
*147 _117_
*148 _118_
*149 _119_
*150 _120_
*151 _121_
*152 _122_
*153 _123_
*154 _124_
*155 _125_
*156 _126_
*157 _127_
*158 _128_
*159 _129_
*160 _130_
*161 _131_
*162 _132_
*163 _133_
*164 _134_
*165 _135_
*166 _136_
*167 _137_
*168 _138_
*169 _139_
*170 _140_
*171 _141_
*172 _142_
*173 _143_
*174 _144_
*175 _145_
*176 _146_
*177 _147_
*178 _148_
*179 _149_
*180 _150_
*181 _151_
*182 _152_
*183 _153_
*184 _154_
*185 _155_
*186 _156_
*187 _157_
*188 _158_
*189 _159_
*190 _160_
*191 _161_
*192 _162_
*193 _163_
*194 _164_
*195 net1
*196 net10
*197 net11
*198 net12
*199 net13
*200 net14
*201 net15
*202 net16
*203 net17
*204 net18
*205 net19
*206 net2
*207 net20
*208 net21
*209 net22
*210 net23
*211 net24
*212 net25
*213 net26
*214 net27
*215 net28
*216 net29
*217 net3
*218 net4
*219 net5
*220 net6
*221 net7
*222 net8
*223 net9
*224 FILLER_0_0_106
*225 FILLER_0_0_113
*226 FILLER_0_0_125
*227 FILLER_0_0_137
*228 FILLER_0_0_141
*229 FILLER_0_0_153
*230 FILLER_0_0_165
*231 FILLER_0_0_178
*232 FILLER_0_0_19
*233 FILLER_0_0_27
*234 FILLER_0_0_38
*235 FILLER_0_0_50
*236 FILLER_0_0_57
*237 FILLER_0_0_69
*238 FILLER_0_0_7
*239 FILLER_0_0_81
*240 FILLER_0_0_85
*241 FILLER_0_10_100
*242 FILLER_0_10_121
*243 FILLER_0_10_131
*244 FILLER_0_10_138
*245 FILLER_0_10_15
*246 FILLER_0_10_156
*247 FILLER_0_10_168
*248 FILLER_0_10_180
*249 FILLER_0_10_188
*250 FILLER_0_10_27
*251 FILLER_0_10_29
*252 FILLER_0_10_3
*253 FILLER_0_10_41
*254 FILLER_0_10_58
*255 FILLER_0_10_66
*256 FILLER_0_10_74
*257 FILLER_0_10_83
*258 FILLER_0_11_113
*259 FILLER_0_11_125
*260 FILLER_0_11_137
*261 FILLER_0_11_147
*262 FILLER_0_11_15
*263 FILLER_0_11_159
*264 FILLER_0_11_167
*265 FILLER_0_11_169
*266 FILLER_0_11_181
*267 FILLER_0_11_189
*268 FILLER_0_11_27
*269 FILLER_0_11_3
*270 FILLER_0_11_39
*271 FILLER_0_11_51
*272 FILLER_0_11_55
*273 FILLER_0_11_57
*274 FILLER_0_11_64
*275 FILLER_0_11_76
*276 FILLER_0_11_84
*277 FILLER_0_11_90
*278 FILLER_0_12_106
*279 FILLER_0_12_128
*280 FILLER_0_12_141
*281 FILLER_0_12_145
*282 FILLER_0_12_153
*283 FILLER_0_12_165
*284 FILLER_0_12_177
*285 FILLER_0_12_18
*286 FILLER_0_12_185
*287 FILLER_0_12_26
*288 FILLER_0_12_29
*289 FILLER_0_12_41
*290 FILLER_0_12_59
*291 FILLER_0_12_6
*292 FILLER_0_12_67
*293 FILLER_0_12_80
*294 FILLER_0_12_94
*295 FILLER_0_13_101
*296 FILLER_0_13_107
*297 FILLER_0_13_111
*298 FILLER_0_13_113
*299 FILLER_0_13_130
*300 FILLER_0_13_141
*301 FILLER_0_13_15
*302 FILLER_0_13_155
*303 FILLER_0_13_161
*304 FILLER_0_13_167
*305 FILLER_0_13_169
*306 FILLER_0_13_181
*307 FILLER_0_13_189
*308 FILLER_0_13_27
*309 FILLER_0_13_3
*310 FILLER_0_13_39
*311 FILLER_0_13_43
*312 FILLER_0_13_60
*313 FILLER_0_13_74
*314 FILLER_0_13_82
*315 FILLER_0_13_89
*316 FILLER_0_14_116
*317 FILLER_0_14_128
*318 FILLER_0_14_136
*319 FILLER_0_14_148
*320 FILLER_0_14_15
*321 FILLER_0_14_152
*322 FILLER_0_14_158
*323 FILLER_0_14_170
*324 FILLER_0_14_182
*325 FILLER_0_14_27
*326 FILLER_0_14_29
*327 FILLER_0_14_3
*328 FILLER_0_14_41
*329 FILLER_0_14_49
*330 FILLER_0_14_61
*331 FILLER_0_14_73
*332 FILLER_0_14_89
*333 FILLER_0_15_103
*334 FILLER_0_15_109
*335 FILLER_0_15_113
*336 FILLER_0_15_125
*337 FILLER_0_15_135
*338 FILLER_0_15_139
*339 FILLER_0_15_147
*340 FILLER_0_15_15
*341 FILLER_0_15_166
*342 FILLER_0_15_169
*343 FILLER_0_15_181
*344 FILLER_0_15_189
*345 FILLER_0_15_27
*346 FILLER_0_15_3
*347 FILLER_0_15_39
*348 FILLER_0_15_51
*349 FILLER_0_15_55
*350 FILLER_0_15_57
*351 FILLER_0_15_69
*352 FILLER_0_15_81
*353 FILLER_0_15_88
*354 FILLER_0_15_96
*355 FILLER_0_16_105
*356 FILLER_0_16_111
*357 FILLER_0_16_123
*358 FILLER_0_16_135
*359 FILLER_0_16_141
*360 FILLER_0_16_15
*361 FILLER_0_16_153
*362 FILLER_0_16_164
*363 FILLER_0_16_176
*364 FILLER_0_16_188
*365 FILLER_0_16_27
*366 FILLER_0_16_29
*367 FILLER_0_16_3
*368 FILLER_0_16_41
*369 FILLER_0_16_55
*370 FILLER_0_16_72
*371 FILLER_0_16_83
*372 FILLER_0_16_85
*373 FILLER_0_16_97
*374 FILLER_0_17_120
*375 FILLER_0_17_147
*376 FILLER_0_17_165
*377 FILLER_0_17_169
*378 FILLER_0_17_181
*379 FILLER_0_17_185
*380 FILLER_0_17_19
*381 FILLER_0_17_31
*382 FILLER_0_17_43
*383 FILLER_0_17_55
*384 FILLER_0_17_57
*385 FILLER_0_17_69
*386 FILLER_0_17_7
*387 FILLER_0_17_81
*388 FILLER_0_17_95
*389 FILLER_0_18_100
*390 FILLER_0_18_111
*391 FILLER_0_18_141
*392 FILLER_0_18_15
*393 FILLER_0_18_153
*394 FILLER_0_18_165
*395 FILLER_0_18_177
*396 FILLER_0_18_189
*397 FILLER_0_18_27
*398 FILLER_0_18_29
*399 FILLER_0_18_3
*400 FILLER_0_18_41
*401 FILLER_0_18_53
*402 FILLER_0_18_57
*403 FILLER_0_18_66
*404 FILLER_0_18_78
*405 FILLER_0_18_88
*406 FILLER_0_19_100
*407 FILLER_0_19_111
*408 FILLER_0_19_113
*409 FILLER_0_19_125
*410 FILLER_0_19_133
*411 FILLER_0_19_137
*412 FILLER_0_19_149
*413 FILLER_0_19_15
*414 FILLER_0_19_161
*415 FILLER_0_19_167
*416 FILLER_0_19_169
*417 FILLER_0_19_181
*418 FILLER_0_19_189
*419 FILLER_0_19_27
*420 FILLER_0_19_3
*421 FILLER_0_19_39
*422 FILLER_0_19_51
*423 FILLER_0_19_66
*424 FILLER_0_19_75
*425 FILLER_0_19_90
*426 FILLER_0_1_105
*427 FILLER_0_1_111
*428 FILLER_0_1_113
*429 FILLER_0_1_125
*430 FILLER_0_1_137
*431 FILLER_0_1_149
*432 FILLER_0_1_15
*433 FILLER_0_1_161
*434 FILLER_0_1_167
*435 FILLER_0_1_169
*436 FILLER_0_1_181
*437 FILLER_0_1_189
*438 FILLER_0_1_27
*439 FILLER_0_1_3
*440 FILLER_0_1_39
*441 FILLER_0_1_51
*442 FILLER_0_1_55
*443 FILLER_0_1_57
*444 FILLER_0_1_69
*445 FILLER_0_1_81
*446 FILLER_0_1_93
*447 FILLER_0_20_103
*448 FILLER_0_20_126
*449 FILLER_0_20_146
*450 FILLER_0_20_15
*451 FILLER_0_20_163
*452 FILLER_0_20_175
*453 FILLER_0_20_187
*454 FILLER_0_20_27
*455 FILLER_0_20_29
*456 FILLER_0_20_3
*457 FILLER_0_20_41
*458 FILLER_0_20_53
*459 FILLER_0_20_65
*460 FILLER_0_20_81
*461 FILLER_0_20_85
*462 FILLER_0_20_97
*463 FILLER_0_21_111
*464 FILLER_0_21_113
*465 FILLER_0_21_138
*466 FILLER_0_21_146
*467 FILLER_0_21_160
*468 FILLER_0_21_169
*469 FILLER_0_21_181
*470 FILLER_0_21_185
*471 FILLER_0_21_19
*472 FILLER_0_21_31
*473 FILLER_0_21_43
*474 FILLER_0_21_55
*475 FILLER_0_21_57
*476 FILLER_0_21_69
*477 FILLER_0_21_7
*478 FILLER_0_21_80
*479 FILLER_0_21_99
*480 FILLER_0_22_105
*481 FILLER_0_22_117
*482 FILLER_0_22_123
*483 FILLER_0_22_148
*484 FILLER_0_22_15
*485 FILLER_0_22_160
*486 FILLER_0_22_172
*487 FILLER_0_22_184
*488 FILLER_0_22_27
*489 FILLER_0_22_29
*490 FILLER_0_22_3
*491 FILLER_0_22_41
*492 FILLER_0_22_53
*493 FILLER_0_22_65
*494 FILLER_0_22_77
*495 FILLER_0_22_83
*496 FILLER_0_22_85
*497 FILLER_0_23_103
*498 FILLER_0_23_111
*499 FILLER_0_23_113
*500 FILLER_0_23_119
*501 FILLER_0_23_123
*502 FILLER_0_23_135
*503 FILLER_0_23_147
*504 FILLER_0_23_15
*505 FILLER_0_23_159
*506 FILLER_0_23_167
*507 FILLER_0_23_169
*508 FILLER_0_23_181
*509 FILLER_0_23_189
*510 FILLER_0_23_27
*511 FILLER_0_23_3
*512 FILLER_0_23_39
*513 FILLER_0_23_51
*514 FILLER_0_23_55
*515 FILLER_0_23_57
*516 FILLER_0_23_69
*517 FILLER_0_23_81
*518 FILLER_0_23_93
*519 FILLER_0_23_99
*520 FILLER_0_24_112
*521 FILLER_0_24_134
*522 FILLER_0_24_15
*523 FILLER_0_24_152
*524 FILLER_0_24_164
*525 FILLER_0_24_176
*526 FILLER_0_24_188
*527 FILLER_0_24_27
*528 FILLER_0_24_29
*529 FILLER_0_24_3
*530 FILLER_0_24_41
*531 FILLER_0_24_53
*532 FILLER_0_24_65
*533 FILLER_0_24_77
*534 FILLER_0_24_83
*535 FILLER_0_24_85
*536 FILLER_0_25_108
*537 FILLER_0_25_113
*538 FILLER_0_25_125
*539 FILLER_0_25_137
*540 FILLER_0_25_145
*541 FILLER_0_25_15
*542 FILLER_0_25_156
*543 FILLER_0_25_169
*544 FILLER_0_25_181
*545 FILLER_0_25_189
*546 FILLER_0_25_27
*547 FILLER_0_25_3
*548 FILLER_0_25_39
*549 FILLER_0_25_51
*550 FILLER_0_25_55
*551 FILLER_0_25_57
*552 FILLER_0_25_69
*553 FILLER_0_25_81
*554 FILLER_0_25_93
*555 FILLER_0_25_99
*556 FILLER_0_26_112
*557 FILLER_0_26_124
*558 FILLER_0_26_136
*559 FILLER_0_26_141
*560 FILLER_0_26_153
*561 FILLER_0_26_165
*562 FILLER_0_26_177
*563 FILLER_0_26_185
*564 FILLER_0_26_19
*565 FILLER_0_26_27
*566 FILLER_0_26_29
*567 FILLER_0_26_41
*568 FILLER_0_26_53
*569 FILLER_0_26_65
*570 FILLER_0_26_7
*571 FILLER_0_26_77
*572 FILLER_0_26_83
*573 FILLER_0_26_85
*574 FILLER_0_26_97
*575 FILLER_0_27_103
*576 FILLER_0_27_111
*577 FILLER_0_27_119
*578 FILLER_0_27_12
*579 FILLER_0_27_131
*580 FILLER_0_27_139
*581 FILLER_0_27_147
*582 FILLER_0_27_159
*583 FILLER_0_27_167
*584 FILLER_0_27_24
*585 FILLER_0_27_35
*586 FILLER_0_27_47
*587 FILLER_0_27_55
*588 FILLER_0_27_63
*589 FILLER_0_27_75
*590 FILLER_0_27_83
*591 FILLER_0_27_91
*592 FILLER_0_2_109
*593 FILLER_0_2_121
*594 FILLER_0_2_133
*595 FILLER_0_2_139
*596 FILLER_0_2_141
*597 FILLER_0_2_15
*598 FILLER_0_2_153
*599 FILLER_0_2_165
*600 FILLER_0_2_177
*601 FILLER_0_2_189
*602 FILLER_0_2_27
*603 FILLER_0_2_29
*604 FILLER_0_2_3
*605 FILLER_0_2_41
*606 FILLER_0_2_53
*607 FILLER_0_2_65
*608 FILLER_0_2_77
*609 FILLER_0_2_83
*610 FILLER_0_2_85
*611 FILLER_0_2_97
*612 FILLER_0_3_105
*613 FILLER_0_3_111
*614 FILLER_0_3_113
*615 FILLER_0_3_125
*616 FILLER_0_3_137
*617 FILLER_0_3_149
*618 FILLER_0_3_161
*619 FILLER_0_3_167
*620 FILLER_0_3_169
*621 FILLER_0_3_18
*622 FILLER_0_3_181
*623 FILLER_0_3_185
*624 FILLER_0_3_30
*625 FILLER_0_3_42
*626 FILLER_0_3_54
*627 FILLER_0_3_57
*628 FILLER_0_3_6
*629 FILLER_0_3_69
*630 FILLER_0_3_81
*631 FILLER_0_3_93
*632 FILLER_0_4_109
*633 FILLER_0_4_121
*634 FILLER_0_4_133
*635 FILLER_0_4_139
*636 FILLER_0_4_141
*637 FILLER_0_4_15
*638 FILLER_0_4_153
*639 FILLER_0_4_165
*640 FILLER_0_4_177
*641 FILLER_0_4_189
*642 FILLER_0_4_27
*643 FILLER_0_4_29
*644 FILLER_0_4_3
*645 FILLER_0_4_41
*646 FILLER_0_4_53
*647 FILLER_0_4_65
*648 FILLER_0_4_77
*649 FILLER_0_4_83
*650 FILLER_0_4_85
*651 FILLER_0_4_97
*652 FILLER_0_5_105
*653 FILLER_0_5_111
*654 FILLER_0_5_113
*655 FILLER_0_5_125
*656 FILLER_0_5_137
*657 FILLER_0_5_149
*658 FILLER_0_5_15
*659 FILLER_0_5_161
*660 FILLER_0_5_167
*661 FILLER_0_5_169
*662 FILLER_0_5_181
*663 FILLER_0_5_189
*664 FILLER_0_5_27
*665 FILLER_0_5_3
*666 FILLER_0_5_39
*667 FILLER_0_5_51
*668 FILLER_0_5_55
*669 FILLER_0_5_57
*670 FILLER_0_5_69
*671 FILLER_0_5_81
*672 FILLER_0_5_93
*673 FILLER_0_6_114
*674 FILLER_0_6_132
*675 FILLER_0_6_141
*676 FILLER_0_6_15
*677 FILLER_0_6_153
*678 FILLER_0_6_165
*679 FILLER_0_6_177
*680 FILLER_0_6_189
*681 FILLER_0_6_27
*682 FILLER_0_6_29
*683 FILLER_0_6_3
*684 FILLER_0_6_41
*685 FILLER_0_6_53
*686 FILLER_0_6_65
*687 FILLER_0_6_75
*688 FILLER_0_6_83
*689 FILLER_0_6_85
*690 FILLER_0_6_97
*691 FILLER_0_7_107
*692 FILLER_0_7_111
*693 FILLER_0_7_113
*694 FILLER_0_7_132
*695 FILLER_0_7_144
*696 FILLER_0_7_15
*697 FILLER_0_7_156
*698 FILLER_0_7_169
*699 FILLER_0_7_181
*700 FILLER_0_7_189
*701 FILLER_0_7_27
*702 FILLER_0_7_3
*703 FILLER_0_7_39
*704 FILLER_0_7_53
*705 FILLER_0_7_57
*706 FILLER_0_7_65
*707 FILLER_0_7_74
*708 FILLER_0_7_86
*709 FILLER_0_8_108
*710 FILLER_0_8_116
*711 FILLER_0_8_129
*712 FILLER_0_8_141
*713 FILLER_0_8_153
*714 FILLER_0_8_170
*715 FILLER_0_8_18
*716 FILLER_0_8_182
*717 FILLER_0_8_186
*718 FILLER_0_8_26
*719 FILLER_0_8_29
*720 FILLER_0_8_41
*721 FILLER_0_8_52
*722 FILLER_0_8_6
*723 FILLER_0_8_60
*724 FILLER_0_8_64
*725 FILLER_0_8_82
*726 FILLER_0_8_85
*727 FILLER_0_8_91
*728 FILLER_0_8_95
*729 FILLER_0_9_100
*730 FILLER_0_9_113
*731 FILLER_0_9_123
*732 FILLER_0_9_131
*733 FILLER_0_9_147
*734 FILLER_0_9_15
*735 FILLER_0_9_159
*736 FILLER_0_9_167
*737 FILLER_0_9_169
*738 FILLER_0_9_181
*739 FILLER_0_9_189
*740 FILLER_0_9_27
*741 FILLER_0_9_3
*742 FILLER_0_9_39
*743 FILLER_0_9_57
*744 FILLER_0_9_76
*745 FILLER_0_9_88
*746 PHY_EDGE_ROW_0_Left_28
*747 PHY_EDGE_ROW_0_Right_0
*748 PHY_EDGE_ROW_10_Left_38
*749 PHY_EDGE_ROW_10_Right_10
*750 PHY_EDGE_ROW_11_Left_39
*751 PHY_EDGE_ROW_11_Right_11
*752 PHY_EDGE_ROW_12_Left_40
*753 PHY_EDGE_ROW_12_Right_12
*754 PHY_EDGE_ROW_13_Left_41
*755 PHY_EDGE_ROW_13_Right_13
*756 PHY_EDGE_ROW_14_Left_42
*757 PHY_EDGE_ROW_14_Right_14
*758 PHY_EDGE_ROW_15_Left_43
*759 PHY_EDGE_ROW_15_Right_15
*760 PHY_EDGE_ROW_16_Left_44
*761 PHY_EDGE_ROW_16_Right_16
*762 PHY_EDGE_ROW_17_Left_45
*763 PHY_EDGE_ROW_17_Right_17
*764 PHY_EDGE_ROW_18_Left_46
*765 PHY_EDGE_ROW_18_Right_18
*766 PHY_EDGE_ROW_19_Left_47
*767 PHY_EDGE_ROW_19_Right_19
*768 PHY_EDGE_ROW_1_Left_29
*769 PHY_EDGE_ROW_1_Right_1
*770 PHY_EDGE_ROW_20_Left_48
*771 PHY_EDGE_ROW_20_Right_20
*772 PHY_EDGE_ROW_21_Left_49
*773 PHY_EDGE_ROW_21_Right_21
*774 PHY_EDGE_ROW_22_Left_50
*775 PHY_EDGE_ROW_22_Right_22
*776 PHY_EDGE_ROW_23_Left_51
*777 PHY_EDGE_ROW_23_Right_23
*778 PHY_EDGE_ROW_24_Left_52
*779 PHY_EDGE_ROW_24_Right_24
*780 PHY_EDGE_ROW_25_Left_53
*781 PHY_EDGE_ROW_25_Right_25
*782 PHY_EDGE_ROW_26_Left_54
*783 PHY_EDGE_ROW_26_Right_26
*784 PHY_EDGE_ROW_27_Left_55
*785 PHY_EDGE_ROW_27_Right_27
*786 PHY_EDGE_ROW_2_Left_30
*787 PHY_EDGE_ROW_2_Right_2
*788 PHY_EDGE_ROW_3_Left_31
*789 PHY_EDGE_ROW_3_Right_3
*790 PHY_EDGE_ROW_4_Left_32
*791 PHY_EDGE_ROW_4_Right_4
*792 PHY_EDGE_ROW_5_Left_33
*793 PHY_EDGE_ROW_5_Right_5
*794 PHY_EDGE_ROW_6_Left_34
*795 PHY_EDGE_ROW_6_Right_6
*796 PHY_EDGE_ROW_7_Left_35
*797 PHY_EDGE_ROW_7_Right_7
*798 PHY_EDGE_ROW_8_Left_36
*799 PHY_EDGE_ROW_8_Right_8
*800 PHY_EDGE_ROW_9_Left_37
*801 PHY_EDGE_ROW_9_Right_9
*802 TAP_TAPCELL_ROW_0_56
*803 TAP_TAPCELL_ROW_0_57
*804 TAP_TAPCELL_ROW_0_58
*805 TAP_TAPCELL_ROW_0_59
*806 TAP_TAPCELL_ROW_0_60
*807 TAP_TAPCELL_ROW_0_61
*808 TAP_TAPCELL_ROW_10_89
*809 TAP_TAPCELL_ROW_10_90
*810 TAP_TAPCELL_ROW_10_91
*811 TAP_TAPCELL_ROW_11_92
*812 TAP_TAPCELL_ROW_11_93
*813 TAP_TAPCELL_ROW_11_94
*814 TAP_TAPCELL_ROW_12_95
*815 TAP_TAPCELL_ROW_12_96
*816 TAP_TAPCELL_ROW_12_97
*817 TAP_TAPCELL_ROW_13_100
*818 TAP_TAPCELL_ROW_13_98
*819 TAP_TAPCELL_ROW_13_99
*820 TAP_TAPCELL_ROW_14_101
*821 TAP_TAPCELL_ROW_14_102
*822 TAP_TAPCELL_ROW_14_103
*823 TAP_TAPCELL_ROW_15_104
*824 TAP_TAPCELL_ROW_15_105
*825 TAP_TAPCELL_ROW_15_106
*826 TAP_TAPCELL_ROW_16_107
*827 TAP_TAPCELL_ROW_16_108
*828 TAP_TAPCELL_ROW_16_109
*829 TAP_TAPCELL_ROW_17_110
*830 TAP_TAPCELL_ROW_17_111
*831 TAP_TAPCELL_ROW_17_112
*832 TAP_TAPCELL_ROW_18_113
*833 TAP_TAPCELL_ROW_18_114
*834 TAP_TAPCELL_ROW_18_115
*835 TAP_TAPCELL_ROW_19_116
*836 TAP_TAPCELL_ROW_19_117
*837 TAP_TAPCELL_ROW_19_118
*838 TAP_TAPCELL_ROW_1_62
*839 TAP_TAPCELL_ROW_1_63
*840 TAP_TAPCELL_ROW_1_64
*841 TAP_TAPCELL_ROW_20_119
*842 TAP_TAPCELL_ROW_20_120
*843 TAP_TAPCELL_ROW_20_121
*844 TAP_TAPCELL_ROW_21_122
*845 TAP_TAPCELL_ROW_21_123
*846 TAP_TAPCELL_ROW_21_124
*847 TAP_TAPCELL_ROW_22_125
*848 TAP_TAPCELL_ROW_22_126
*849 TAP_TAPCELL_ROW_22_127
*850 TAP_TAPCELL_ROW_23_128
*851 TAP_TAPCELL_ROW_23_129
*852 TAP_TAPCELL_ROW_23_130
*853 TAP_TAPCELL_ROW_24_131
*854 TAP_TAPCELL_ROW_24_132
*855 TAP_TAPCELL_ROW_24_133
*856 TAP_TAPCELL_ROW_25_134
*857 TAP_TAPCELL_ROW_25_135
*858 TAP_TAPCELL_ROW_25_136
*859 TAP_TAPCELL_ROW_26_137
*860 TAP_TAPCELL_ROW_26_138
*861 TAP_TAPCELL_ROW_26_139
*862 TAP_TAPCELL_ROW_27_140
*863 TAP_TAPCELL_ROW_27_141
*864 TAP_TAPCELL_ROW_27_142
*865 TAP_TAPCELL_ROW_27_143
*866 TAP_TAPCELL_ROW_27_144
*867 TAP_TAPCELL_ROW_27_145
*868 TAP_TAPCELL_ROW_2_65
*869 TAP_TAPCELL_ROW_2_66
*870 TAP_TAPCELL_ROW_2_67
*871 TAP_TAPCELL_ROW_3_68
*872 TAP_TAPCELL_ROW_3_69
*873 TAP_TAPCELL_ROW_3_70
*874 TAP_TAPCELL_ROW_4_71
*875 TAP_TAPCELL_ROW_4_72
*876 TAP_TAPCELL_ROW_4_73
*877 TAP_TAPCELL_ROW_5_74
*878 TAP_TAPCELL_ROW_5_75
*879 TAP_TAPCELL_ROW_5_76
*880 TAP_TAPCELL_ROW_6_77
*881 TAP_TAPCELL_ROW_6_78
*882 TAP_TAPCELL_ROW_6_79
*883 TAP_TAPCELL_ROW_7_80
*884 TAP_TAPCELL_ROW_7_81
*885 TAP_TAPCELL_ROW_7_82
*886 TAP_TAPCELL_ROW_8_83
*887 TAP_TAPCELL_ROW_8_84
*888 TAP_TAPCELL_ROW_8_85
*889 TAP_TAPCELL_ROW_9_86
*890 TAP_TAPCELL_ROW_9_87
*891 TAP_TAPCELL_ROW_9_88
*892 _165_
*893 _166_
*894 _167_
*895 _168_
*896 _169_
*897 _170_
*898 _171_
*899 _172_
*900 _173_
*901 _174_
*902 _175_
*903 _176_
*904 _177_
*905 _178_
*906 _179_
*907 _180_
*908 _181_
*909 _182_
*910 _183_
*911 _184_
*912 _185_
*913 _186_
*914 _187_
*915 _188_
*916 _189_
*917 _190_
*918 _191_
*919 _192_
*920 _193_
*921 _194_
*922 _195_
*923 _196_
*924 _197_
*925 _198_
*926 _199_
*927 _200_
*928 _201_
*929 _202_
*930 _203_
*931 _204_
*932 _205_
*933 _206_
*934 _207_
*935 _208_
*936 _209_
*937 _210_
*938 _211_
*939 _212_
*940 _213_
*941 _214_
*942 _215_
*943 _216_
*944 _217_
*945 _218_
*946 _219_
*947 _220_
*948 _221_
*949 _222_
*950 _223_
*951 _224_
*952 _225_
*953 _226_
*954 _227_
*955 _228_
*956 _229_
*957 _230_
*958 _231_
*959 _232_
*960 _233_
*961 _234_
*962 _235_
*963 _236_
*964 _237_
*965 _238_
*966 _239_
*967 _240_
*968 _241_
*969 _242_
*970 _243_
*971 _244_
*972 _245_
*973 _246_
*974 _247_
*975 _248_
*976 _249_
*977 _250_
*978 _251_
*979 _252_
*980 _253_
*981 _254_
*982 _255_
*983 _256_
*984 _257_
*985 _258_
*986 _259_
*987 _260_
*988 _261_
*989 _262_
*990 _263_
*991 _264_
*992 _265_
*993 _266_
*994 _267_
*995 _268_
*996 _269_
*997 _270_
*998 _271_
*999 _272_
*1000 _273_
*1001 _274_
*1002 _275_
*1003 _276_
*1004 _277_
*1005 _278_
*1006 _279_
*1007 _280_
*1008 _281_
*1009 _282_
*1010 _283_
*1011 _284_
*1012 _285_
*1013 _286_
*1014 _287_
*1015 _288_
*1016 _289_
*1017 _290_
*1018 _291_
*1019 _292_
*1020 _293_
*1021 _294_
*1022 _295_
*1023 _296_
*1024 _297_
*1025 _298_
*1026 _299_
*1027 _300_
*1028 _301_
*1029 _302_
*1030 _303_
*1031 _304_
*1032 _305_
*1033 _306_
*1034 _307_
*1035 _308_
*1036 _309_
*1037 _310_
*1038 _311_
*1039 _312_
*1040 _313_
*1041 _314_
*1042 _315_
*1043 _316_
*1044 _317_
*1045 _318_
*1046 _319_
*1047 _320_
*1048 _321_
*1049 _322_
*1050 _323_
*1051 _324_
*1052 _325_
*1053 _326_
*1054 _327_
*1055 _328_
*1056 _329_
*1057 _330_
*1058 _331_
*1059 _332_
*1060 _333_
*1061 _334_
*1062 _335_
*1063 _336_
*1064 _337_
*1065 clone2
*1066 input1
*1067 input10
*1068 input11
*1069 input12
*1070 input13
*1071 input14
*1072 input15
*1073 input16
*1074 input17
*1075 input18
*1076 input19
*1077 input2
*1078 input3
*1079 input4
*1080 input5
*1081 input6
*1082 input7
*1083 input8
*1084 input9
*1085 output20
*1086 output21
*1087 output22
*1088 output23
*1089 output24
*1090 output25
*1091 output26
*1092 output27
*1093 rebuffer1

*PORTS
A[0] I
A[1] I
A[2] I
A[3] I
A[4] I
A[5] I
A[6] I
A[7] I
B[0] I
B[1] I
B[2] I
B[3] I
B[4] I
B[5] I
B[6] I
B[7] I
opcode[0] I
opcode[1] I
opcode[2] I
out[0] O
out[1] O
out[2] O
out[3] O
out[4] O
out[5] O
out[6] O
out[7] O

*D_NET *1 0.000863065
*CONN
*P A[0] I
*I *1066:A I *D sky130_fd_sc_hd__buf_2
*CAP
1 A[0] 0.000431532
2 *1066:A 0.000431532
*RES
1 A[0] *1066:A 9.8943 
*END

*D_NET *2 0.000560888
*CONN
*P A[1] I
*I *1077:A I *D sky130_fd_sc_hd__buf_1
*CAP
1 A[1] 0.000280444
2 *1077:A 0.000280444
*RES
1 A[1] *1077:A 7.0893 
*END

*D_NET *3 0.000638333
*CONN
*P A[2] I
*I *1078:A I *D sky130_fd_sc_hd__buf_1
*CAP
1 A[2] 0.000319167
2 *1078:A 0.000319167
3 *1078:A *1085:A 0
*RES
1 A[2] *1078:A 7.8543 
*END

*D_NET *4 0.000534896
*CONN
*P A[3] I
*I *1079:A I *D sky130_fd_sc_hd__buf_1
*CAP
1 A[3] 0.000267448
2 *1079:A 0.000267448
*RES
1 A[3] *1079:A 6.8343 
*END

*D_NET *5 0.000706241
*CONN
*P A[4] I
*I *1080:A I *D sky130_fd_sc_hd__clkbuf_2
*CAP
1 A[4] 0.00035312
2 *1080:A 0.00035312
3 *1080:A *1085:A 0
*RES
1 A[4] *1080:A 8.4543 
*END

*D_NET *6 0.000565424
*CONN
*P A[5] I
*I *1081:A I *D sky130_fd_sc_hd__clkbuf_2
*CAP
1 A[5] 0.000264803
2 *1081:A 0.000264803
3 *1081:A *1085:A 3.58184e-05
*RES
1 A[5] *1081:A 5.67003 
*END

*D_NET *7 0.000678458
*CONN
*P A[6] I
*I *1082:A I *D sky130_fd_sc_hd__clkbuf_2
*CAP
1 A[6] 0.000339229
2 *1082:A 0.000339229
3 *1082:A *1085:A 0
*RES
1 A[6] *1082:A 7.9443 
*END

*D_NET *8 0.00204932
*CONN
*P A[7] I
*I *1083:A I *D sky130_fd_sc_hd__buf_1
*CAP
1 A[7] 0.00102466
2 *1083:A 0.00102466
3 *1083:A out[1] 0
*RES
1 A[7] *1083:A 14.0308 
*END

*D_NET *9 0.000855849
*CONN
*P B[0] I
*I *1084:A I *D sky130_fd_sc_hd__clkbuf_2
*CAP
1 B[0] 0.000427925
2 *1084:A 0.000427925
*RES
1 B[0] *1084:A 8.2783 
*END

*D_NET *10 0.00065862
*CONN
*P B[1] I
*I *1067:A I *D sky130_fd_sc_hd__clkbuf_2
*CAP
1 B[1] 0.000320204
2 *1067:A 0.000320204
3 *1067:A *196:18 1.82111e-05
*RES
1 B[1] *1067:A 5.9833 
*END

*D_NET *11 0.000626663
*CONN
*P B[2] I
*I *1068:A I *D sky130_fd_sc_hd__clkbuf_1
*CAP
1 B[2] 0.00028219
2 *1068:A 0.00028219
3 *1068:A *196:18 6.22834e-05
*RES
1 B[2] *1068:A 6.43503 
*END

*D_NET *12 0.000551271
*CONN
*P B[3] I
*I *1069:A I *D sky130_fd_sc_hd__buf_1
*CAP
1 B[3] 0.000275636
2 *1069:A 0.000275636
*RES
1 B[3] *1069:A 5.41503 
*END

*D_NET *13 0.00071563
*CONN
*P B[4] I
*I *1070:A I *D sky130_fd_sc_hd__clkbuf_2
*CAP
1 B[4] 0.000357815
2 *1070:A 0.000357815
*RES
1 B[4] *1070:A 6.7483 
*END

*D_NET *14 0.000604346
*CONN
*P B[5] I
*I *1071:A I *D sky130_fd_sc_hd__clkbuf_2
*CAP
1 B[5] 0.000289599
2 *1071:A 0.000289599
3 *1071:A *200:12 2.51475e-05
*RES
1 B[5] *1071:A 5.7283 
*END

*D_NET *15 0.000663564
*CONN
*P B[6] I
*I *1072:A I *D sky130_fd_sc_hd__clkbuf_2
*CAP
1 B[6] 0.000307407
2 *1072:A 0.000307407
3 *1072:A *1092:A 4.875e-05
*RES
1 B[6] *1072:A 6.2383 
*END

*D_NET *16 0.00139801
*CONN
*P B[7] I
*I *1073:A I *D sky130_fd_sc_hd__buf_1
*CAP
1 B[7] 0.00069752
2 *1073:A 0.00069752
3 *1073:A out[7] 0
4 *1073:A *1092:A 2.97004e-06
*RES
1 B[7] *1073:A 10.8629 
*END

*D_NET *19 0.00104369
*CONN
*P opcode[0] I
*I *1074:A I *D sky130_fd_sc_hd__buf_6
*CAP
1 opcode[0] 0.000473924
2 *1074:A 0.000473924
3 *1074:A *195:10 9.58405e-05
*RES
1 opcode[0] *1074:A 12.075 
*END

*D_NET *20 0.000847791
*CONN
*P opcode[1] I
*I *1075:A I *D sky130_fd_sc_hd__buf_6
*CAP
1 opcode[1] 0.000408434
2 *1075:A 0.000408434
3 *1075:A *203:10 3.09233e-05
*RES
1 opcode[1] *1075:A 10.695 
*END

*D_NET *21 0.000837925
*CONN
*P opcode[2] I
*I *1076:A I *D sky130_fd_sc_hd__buf_6
*CAP
1 opcode[2] 0.000418963
2 *1076:A 0.000418963
*RES
1 opcode[2] *1076:A 10.695 
*END

*D_NET *22 0.000988159
*CONN
*P out[0] O
*I *1085:X O *D sky130_fd_sc_hd__clkbuf_4
*CAP
1 out[0] 0.000494079
2 *1085:X 0.000494079
*RES
1 *1085:X out[0] 11.97 
*END

*D_NET *23 0.0009298
*CONN
*P out[1] O
*I *1086:X O *D sky130_fd_sc_hd__clkbuf_4
*CAP
1 out[1] 0.0004649
2 *1086:X 0.0004649
3 *1083:A out[1] 0
*RES
1 *1086:X out[1] 11.625 
*END

*D_NET *24 0.0010283
*CONN
*P out[2] O
*I *1087:X O *D sky130_fd_sc_hd__clkbuf_4
*CAP
1 out[2] 0.000470016
2 *1087:X 0.000470016
3 out[2] *1086:A 8.8266e-05
*RES
1 *1087:X out[2] 11.97 
*END

*D_NET *25 0.00128696
*CONN
*P out[3] O
*I *1088:X O *D sky130_fd_sc_hd__clkbuf_4
*CAP
1 out[3] 0.000541893
2 *1088:X 0.000541893
3 out[3] *1087:A 0.000203178
*RES
1 *1088:X out[3] 12.75 
*END

*D_NET *26 0.00126342
*CONN
*P out[4] O
*I *1089:X O *D sky130_fd_sc_hd__clkbuf_4
*CAP
1 out[4] 0.000594917
2 *1089:X 0.000594917
3 out[4] *1089:A 7.35813e-05
*RES
1 *1089:X out[4] 13.095 
*END

*D_NET *27 0.00129439
*CONN
*P out[5] O
*I *1090:X O *D sky130_fd_sc_hd__clkbuf_4
*CAP
1 out[5] 0.000647195
2 *1090:X 0.000647195
*RES
1 *1090:X out[5] 13.44 
*END

*D_NET *28 0.00155019
*CONN
*P out[6] O
*I *1091:X O *D sky130_fd_sc_hd__buf_8
*CAP
1 out[6] 0.000656636
2 *1091:X 0.000656636
3 out[6] *1091:A 0.000236922
*RES
1 *1091:X out[6] 15.24 
*END

*D_NET *29 0.000935914
*CONN
*P out[7] O
*I *1092:X O *D sky130_fd_sc_hd__clkbuf_4
*CAP
1 out[7] 0.000467957
2 *1092:X 0.000467957
3 *1073:A out[7] 0
*RES
1 *1092:X out[7] 11.625 
*END

*D_NET *30 0.000680334
*CONN
*I *965:A I *D sky130_fd_sc_hd__nor2_1
*I *964:Y O *D sky130_fd_sc_hd__inv_2
*CAP
1 *965:A 0.000178931
2 *964:Y 0.000178931
3 *965:A *964:A 3.00381e-05
4 *965:A *966:A1 0.000120186
5 *965:A *31:12 3.86529e-05
6 *965:A *31:25 0.000122337
7 *965:A *126:21 1.12578e-05
8 *965:A *129:75 0
*RES
1 *964:Y *965:A 10.41 
*END

*D_NET *31 0.0017661
*CONN
*I *1048:C1 I *D sky130_fd_sc_hd__a211o_1
*I *1047:A1 I *D sky130_fd_sc_hd__o211ai_1
*I *966:C1 I *D sky130_fd_sc_hd__a211o_1
*I *965:Y O *D sky130_fd_sc_hd__nor2_1
*CAP
1 *1048:C1 0
2 *1047:A1 0.000136209
3 *966:C1 0
4 *965:Y 0.000121197
5 *31:25 0.00039966
6 *31:12 0.000384648
7 *1047:A1 *966:A2 0
8 *1047:A1 *1047:A2 7.63204e-05
9 *1047:A1 *1048:A1 2.46007e-05
10 *1047:A1 *32:10 0
11 *1047:A1 *97:21 4.43871e-06
12 *1047:A1 *106:6 4.82863e-05
13 *1047:A1 *184:10 4.82863e-05
14 *31:12 *965:B 7.00889e-06
15 *31:12 *966:A1 1.32017e-05
16 *31:12 *966:B1 9.50342e-06
17 *31:12 *187:8 1.61831e-05
18 *31:25 *126:21 0.000315566
19 *965:A *31:12 3.86529e-05
20 *965:A *31:25 0.000122337
*RES
1 *965:Y *31:12 7.43 
2 *31:12 *966:C1 1.6 
3 *31:12 *31:25 5.76 
4 *31:25 *1047:A1 8.45 
5 *31:25 *1048:C1 1.6 
*END

*D_NET *32 0.00216175
*CONN
*I *990:A1 I *D sky130_fd_sc_hd__a311o_1
*I *967:C I *D sky130_fd_sc_hd__and3_1
*I *1055:A2 I *D sky130_fd_sc_hd__a21o_1
*I *966:X O *D sky130_fd_sc_hd__a211o_1
*CAP
1 *990:A1 0.000185732
2 *967:C 2.33563e-05
3 *1055:A2 1.87837e-05
4 *966:X 0.000334031
5 *32:14 7.6899e-05
6 *32:10 0.000554522
7 *967:C *1055:B1 2.61381e-05
8 *967:C *178:12 0
9 *967:C *181:15 5.05006e-06
10 *990:A1 *949:B 8.33066e-06
11 *990:A1 *990:A3 4.77769e-05
12 *990:A1 *990:C1 4.77769e-05
13 *990:A1 *179:16 7.67922e-05
14 *990:A1 *179:25 1.19928e-05
15 *1055:A2 *1055:A1 0.000122817
16 *1055:A2 *1055:B1 9.74835e-05
17 *32:10 *948:A 6.27521e-05
18 *32:10 *949:B 0.000197882
19 *32:10 *966:B1 0
20 *32:10 *1048:A1 0
21 *32:10 *126:21 3.00381e-05
22 *32:10 *184:34 0
23 *32:14 *948:A 8.53011e-05
24 *32:14 *1055:B1 2.10905e-05
25 *32:14 *181:6 8.52972e-05
26 *32:14 *181:15 1.5379e-05
27 *32:14 *199:22 2.65311e-05
28 *1047:A1 *32:10 0
*RES
1 *966:X *32:10 9.765 
2 *32:10 *32:14 3.485 
3 *32:14 *1055:A2 2.74 
4 *32:14 *967:C 2.125 
5 *32:10 *990:A1 6.72 
*END

*D_NET *33 0.00156498
*CONN
*I *1056:A_N I *D sky130_fd_sc_hd__and3b_1
*I *975:C I *D sky130_fd_sc_hd__or3_1
*I *974:A2 I *D sky130_fd_sc_hd__o21ai_1
*I *967:X O *D sky130_fd_sc_hd__and3_1
*CAP
1 *1056:A_N 0
2 *975:C 0.000124791
3 *974:A2 4.10087e-05
4 *967:X 0.000209676
5 *33:18 0.00030471
6 *33:8 0.000348586
7 *974:A2 *974:B1 4.89395e-05
8 *975:C *974:A1 0.000101909
9 *975:C *974:B1 5.94184e-05
10 *33:8 *1055:B1 0.000173506
11 *33:8 *199:22 3.51467e-05
12 *33:18 *173:21 2.85837e-05
13 *33:18 *173:36 3.79351e-05
14 *33:18 *199:22 5.077e-05
*RES
1 *967:X *33:8 4.735 
2 *33:8 *33:18 6.535 
3 *33:18 *974:A2 2.86 
4 *33:18 *975:C 4.135 
5 *33:8 *1056:A_N 1.6 
*END

*D_NET *34 0.00168632
*CONN
*I *969:B I *D sky130_fd_sc_hd__xnor2_1
*I *987:A2 I *D sky130_fd_sc_hd__o21a_1
*I *968:X O *D sky130_fd_sc_hd__o31a_1
*CAP
1 *969:B 6.30514e-05
2 *987:A2 0
3 *968:X 0.000325947
4 *34:12 0.000388998
5 *969:B *1013:B1 0.0001249
6 *969:B *200:23 0.000248453
7 *969:B *216:40 4.89503e-05
8 *34:12 *199:8 1.54665e-05
9 *34:12 *199:10 5.09431e-05
10 *34:12 *216:40 0.000419607
*RES
1 *968:X *34:12 12.2 
2 *34:12 *987:A2 1.6 
3 *34:12 *969:B 4.135 
*END

*D_NET *35 0.000726905
*CONN
*I *972:B I *D sky130_fd_sc_hd__and2_1
*I *970:B I *D sky130_fd_sc_hd__or2_1
*I *969:Y O *D sky130_fd_sc_hd__xnor2_1
*CAP
1 *972:B 0
2 *970:B 6.63913e-05
3 *969:Y 0.000152359
4 *35:10 0.000218751
5 *970:B *972:A 0.000159741
6 *35:10 *972:A 3.25635e-05
7 *35:10 *200:23 0
8 *35:10 *200:31 9.70988e-05
9 *35:10 *220:52 0
*RES
1 *969:Y *35:10 4.84 
2 *35:10 *970:B 3.085 
3 *35:10 *972:B 1.6 
*END

*D_NET *36 0.0014618
*CONN
*I *971:A I *D sky130_fd_sc_hd__inv_2
*I *992:A2 I *D sky130_fd_sc_hd__a21o_1
*I *991:A I *D sky130_fd_sc_hd__and3_1
*I *1009:A1 I *D sky130_fd_sc_hd__a32o_1
*I *970:X O *D sky130_fd_sc_hd__or2_1
*CAP
1 *971:A 0
2 *992:A2 6.37073e-05
3 *991:A 1.42455e-05
4 *1009:A1 2.76832e-05
5 *970:X 2.52716e-05
6 *36:12 4.19286e-05
7 *36:10 0.000188476
8 *36:6 0.000150041
9 *991:A *1009:A2 4.66108e-05
10 *991:A *1009:B2 1.91597e-05
11 *992:A2 *1009:B1 0.000124311
12 *992:A2 *1009:B2 0.000158734
13 *992:A2 *54:8 4.66108e-05
14 *992:A2 *54:12 1.07797e-05
15 *1009:A1 *1009:A2 0.000121811
16 *1009:A1 *1009:B1 3.04189e-05
17 *1009:A1 *1009:B2 5.83121e-06
18 *1009:A1 *1014:B 3.34589e-05
19 *36:6 *200:31 0.000124895
20 *36:6 *220:52 7.10578e-05
21 *36:10 *991:B 2.34345e-05
22 *36:10 *1009:B1 3.09164e-05
23 *36:10 *1009:B2 5.23362e-05
24 *36:10 *55:10 5.00786e-05
*RES
1 *970:X *36:6 2.74 
2 *36:6 *36:10 4.655 
3 *36:10 *36:12 2 
4 *36:12 *1009:A1 2.74 
5 *36:12 *991:A 2.05 
6 *36:10 *992:A2 5.685 
7 *36:6 *971:A 1.6 
*END

*D_NET *37 0.000358719
*CONN
*I *973:A I *D sky130_fd_sc_hd__nor2_1
*I *971:Y O *D sky130_fd_sc_hd__inv_2
*CAP
1 *973:A 9.79231e-05
2 *971:Y 9.79231e-05
3 *973:A *55:10 0.000114586
4 *973:A *200:31 4.82863e-05
*RES
1 *971:Y *973:A 9.03 
*END

*D_NET *38 0.00105586
*CONN
*I *973:B I *D sky130_fd_sc_hd__nor2_1
*I *990:C1 I *D sky130_fd_sc_hd__a311o_1
*I *972:X O *D sky130_fd_sc_hd__and2_1
*CAP
1 *973:B 7.70101e-05
2 *990:C1 0.000190638
3 *972:X 0.000107233
4 *38:8 0.000374881